@<TRIPOS>MOLECULE
Created
   14    13     1     0     0
SMALL
rc


@<TRIPOS>ATOM
      1 C3           0.7780     1.9910    -0.5330 c3         1 UNL      -0.070261
      2 H            1.6170     1.5720    -1.0880 hc         1 UNL       0.038925
      3 H1           0.3680     2.8290    -1.1000 hc         1 UNL       0.038925
      4 H2           1.1450     2.3610     0.4220 hc         1 UNL       0.038925      
      5 C2          -0.2980     0.9440    -0.3400 c3         1 UNL      -0.019366
      6 H8          -1.1160     1.3360     0.2640 h1         1 UNL       0.083312
      7 Br           0.4330    -0.5060     0.7410 br         1 UNL      -0.183962
      8 C1          -0.8290     0.3930    -1.6490 c3         1 UNL       0.029174
      9 H6          -1.1450     1.2540    -2.2460 hc         1 UNL       0.018379
     10 H7          -0.0060    -0.0840    -2.1860 hc         1 UNL       0.018379     
     11 C           -1.9930    -0.5730    -1.4870 c3         1 UNL      -0.040787
     12 H3          -2.3660    -0.8960    -2.4580 hc         1 UNL       0.016118
     13 H4          -1.6880    -1.4540    -0.9270 hc         1 UNL       0.016118
     14 H5          -2.8160    -0.0980    -0.9510 hc         1 UNL       0.016118

     
@<TRIPOS>BOND
     1    12    11 1   
     2     9     8 1   
     3    10     8 1   
     4     8    11 1   
     5     8     5 1   
     6    11    14 1   
     7    11    13 1   
     8     3     1 1   
     9     2     1 1   
    10     1     5 1   
    11     1     4 1   
    12     5     6 1   
    13     5     7 1   
@<TRIPOS>SUBSTRUCTURE
     1 UNL         1 TEMP              0 ****  ****    0 ROOT
