@<TRIPOS>MOLECULE
Created
   14    13     1     0     0
SMALL
rc


@<TRIPOS>ATOM
      1 C           -2.2840     1.5770     0.0170 c3         1 UNL      -0.041858
      2 H           -3.0180     1.8770    -0.7310 hc         1 UNL       0.009395
      3 H1          -2.3770     0.4990     0.1500 hc         1 UNL       0.009395
      4 H2          -2.5500     2.0610     0.9580 hc         1 UNL       0.009395
      5 C1          -0.8750     1.9610    -0.4190 c3         1 UNL       0.055285
      6 H3          -0.8440     3.0230    -0.6720 hc         1 UNL      -0.006891
      7 H4          -0.6090     1.4130    -1.3240 hc         1 UNL      -0.006891
      8 C2           0.1780     1.6920     0.6520 c3         1 UNL       0.059799
      9 H5          -0.0140     2.3340     1.5180 hc         1 UNL       0.010751
     10 H6           1.1670     1.9510     0.2720 hc         1 UNL       0.010751
     11 C3           0.2010     0.2680     1.1650 c3         1 UNL      -0.114314
     12 H7           1.0010     0.1110     1.8820 h1         1 UNL       0.102392
     13 H8          -0.7420    -0.0280     1.6130 h1         1 UNL       0.102392
     14 Br           0.5250    -1.0050    -0.2620 br         1 UNL      -0.199602
@<TRIPOS>BOND
     1     7     5 1   
     2     2     1 1   
     3     6     5 1   
     4     5     1 1   
     5     5     8 1   
     6    14    11 1   
     7     1     3 1   
     8     1     4 1   
     9    10     8 1   
    10     8    11 1   
    11     8     9 1   
    12    11    13 1   
    13    11    12 1   
@<TRIPOS>SUBSTRUCTURE
     1 UNL         1 TEMP              0 ****  ****    0 ROOT
