@<TRIPOS>MOLECULE
conformer_07a
   15    13     1     0     0
SMALL
rc


@<TRIPOS>ATOM
      1 C           -3.9200     0.1300    -0.2580 c3         1 UNL      -0.042445
      2 H           -4.7480     0.4810    -0.8650 hc         1 UNL       0.010192
      3 H1          -4.0160    -0.9460    -0.1560 hc         1 UNL       0.010192
      4 H2          -4.0240     0.5680     0.7310 hc         1 UNL       0.010192
      5 C1          -2.5790     0.5070    -0.8880 c3         1 UNL       0.048228
      6 H3          -2.5270     1.5860    -1.0080 hc         1 UNL      -0.005025
      7 H4          -2.5190     0.0830    -1.8880 hc         1 UNL      -0.005025
      8 C2          -1.3870     0.0250    -0.0550 c3         1 UNL       0.027006
      9 H5          -1.4290    -1.0530     0.0600 hc         1 UNL       0.014441
     10 H6          -1.4370     0.4520     0.9420 hc         1 UNL       0.014441
     11 C3          -0.0680     0.4120    -0.7040 c3         1 UNL       0.051557
     12 H7           0.0550    -0.0370    -1.6770 h1         1 UNL       0.071247
     13 H8           0.0470     1.4810    -0.7880 h1         1 UNL       0.071247
     14 Br           1.4720    -0.1970     0.3490 br         1 UNL      -0.341823
     15 EP           2.6500    -0.6620     1.1540 DU         2 UNL       0.065575
@<TRIPOS>BOND
     1     7     5 1   
     2    12    11 1   
     3     6     5 1   
     4     5     1 1   
     5     5     8 1   
     6     2     1 1   
     7    13    11 1   
     8    11     8 1   
     9    11    14 1   
    10     1     3 1   
    11     1     4 1   
    12     8     9 1   
    13     8    10 1   
@<TRIPOS>SUBSTRUCTURE
     1 UNL         1 TEMP              0 ****  ****    0 ROOT
