@<TRIPOS>MOLECULE
Created
   14    13     1     0     0
SMALL
rc


@<TRIPOS>ATOM
      1 C           -1.9930    -0.5730    -1.4870 c3         1 UNL      -0.040787
      2 C1          -0.8290     0.3930    -1.6490 c3         1 UNL       0.029174
      3 C2          -0.2980     0.9440    -0.3400 c3         1 UNL      -0.019366
      4 C3           0.7780     1.9910    -0.5330 c3         1 UNL      -0.070261
      5 Br           0.4330    -0.5060     0.7410 br         1 UNL      -0.183962
      6 H            1.6170     1.5720    -1.0880 hc         1 UNL       0.038925
      7 H1           0.3680     2.8290    -1.1000 hc         1 UNL       0.038925
      8 H2           1.1450     2.3610     0.4220 hc         1 UNL       0.038925
      9 H3          -2.3660    -0.8960    -2.4580 hc         1 UNL       0.016118
     10 H4          -1.6880    -1.4540    -0.9270 hc         1 UNL       0.016118
     11 H5          -2.8160    -0.0980    -0.9510 hc         1 UNL       0.016118
     12 H6          -1.1450     1.2540    -2.2460 hc         1 UNL       0.018379
     13 H7          -0.0060    -0.0840    -2.1860 hc         1 UNL       0.018379
     14 H8          -1.1160     1.3360     0.2640 h1         1 UNL       0.083312
@<TRIPOS>BOND
     1     9     1 1   
     2    12     2 1   
     3    13     2 1   
     4     2     1 1   
     5     2     3 1   
     6     1    11 1   
     7     1    10 1   
     8     7     4 1   
     9     6     4 1   
    10     4     3 1   
    11     4     8 1   
    12     3    14 1   
    13     3     5 1   
@<TRIPOS>SUBSTRUCTURE
     1 UNL         1 TEMP              0 ****  ****    0 ROOT
