@<TRIPOS>MOLECULE
Created
   14    13     1     0     0
SMALL
rc


@<TRIPOS>ATOM
      1 C           -2.0470    -0.5700    -1.5290 c3         1 UNL      -0.031289
      2 C1          -0.8530     0.3720    -1.6700 c3         1 UNL       0.037657
      3 C2          -0.3140     0.9390    -0.3610 c3         1 UNL      -0.012851
      4 C3           0.7460     2.0100    -0.5660 c3         1 UNL      -0.045177
      5 Br           0.4560    -0.5060     0.7630 br         1 UNL      -0.231017
      6 H            1.5870     1.6230    -1.1300 hc         1 UNL       0.035728
      7 H1           0.3130     2.8370    -1.1220 hc         1 UNL       0.035728
      8 H2           1.1130     2.3890     0.3790 hc         1 UNL       0.035728
      9 H3          -2.4100    -0.8610    -2.5080 hc         1 UNL       0.014026
     10 H4          -1.7840    -1.4700    -0.9880 hc         1 UNL       0.014026
     11 H5          -2.8650    -0.0870    -1.0020 hc         1 UNL       0.014026
     12 H6          -1.1490     1.2290    -2.2720 hc         1 UNL       0.019048
     13 H7          -0.0460    -0.1190    -2.2050 hc         1 UNL       0.019048
     14 H8          -1.1210     1.3190     0.2460 h1         1 UNL       0.095321
@<TRIPOS>BOND
     1     9     1 1   
     2    12     2 1   
     3    13     2 1   
     4     2     1 1   
     5     2     3 1   
     6     1    11 1   
     7     1    10 1   
     8     6     4 1   
     9     7     4 1   
    10     4     3 1   
    11     4     8 1   
    12     3    14 1   
    13     3     5 1   
@<TRIPOS>SUBSTRUCTURE
     1 UNL         1 TEMP              0 ****  ****    0 ROOT
